# DIS package for MODFLOW-NWT generated by Flopy 3.3.6
         1        63        75         2         4         2
  0
INTERNAL               1  (75E15.6) -1 #delr                          
   2.000000E+02   2.000000E+02   2.000000E+02   2.000000E+02   2.000000E+02   2.000000E+02   2.000000E+02   2.000000E+02   2.000000E+02   2.000000E+02   2.000000E+02   2.000000E+02   2.000000E+02   2.000000E+02   2.000000E+02   2.000000E+02   2.000000E+02   2.000000E+02   2.000000E+02   2.000000E+02   2.000000E+02   2.000000E+02   2.000000E+02   2.000000E+02   2.000000E+02   2.000000E+02   2.000000E+02   2.000000E+02   2.000000E+02   2.000000E+02   2.000000E+02   2.000000E+02   2.000000E+02   2.000000E+02   2.000000E+02   2.000000E+02   2.000000E+02   2.000000E+02   2.000000E+02   2.000000E+02   2.000000E+02   2.000000E+02   2.000000E+02   2.000000E+02   2.000000E+02   2.000000E+02   2.000000E+02   2.000000E+02   2.000000E+02   2.000000E+02   2.000000E+02   2.000000E+02   2.000000E+02   2.000000E+02   2.000000E+02   2.000000E+02   2.000000E+02   2.000000E+02   2.000000E+02   2.000000E+02   2.000000E+02   2.000000E+02   2.000000E+02   2.000000E+02   2.000000E+02   2.000000E+02   2.000000E+02   2.000000E+02   2.000000E+02   2.000000E+02   2.000000E+02   2.000000E+02   2.000000E+02   2.000000E+02   2.000000E+02
INTERNAL               1  (63E15.6) -1 #delc                          
   2.000000E+02   2.000000E+02   2.000000E+02   2.000000E+02   2.000000E+02   2.000000E+02   2.000000E+02   2.000000E+02   2.000000E+02   2.000000E+02   2.000000E+02   2.000000E+02   2.000000E+02   2.000000E+02   2.000000E+02   2.000000E+02   2.000000E+02   2.000000E+02   2.000000E+02   2.000000E+02   2.000000E+02   2.000000E+02   2.000000E+02   2.000000E+02   2.000000E+02   2.000000E+02   2.000000E+02   2.000000E+02   2.000000E+02   2.000000E+02   2.000000E+02   2.000000E+02   2.000000E+02   2.000000E+02   2.000000E+02   2.000000E+02   2.000000E+02   2.000000E+02   2.000000E+02   2.000000E+02   2.000000E+02   2.000000E+02   2.000000E+02   2.000000E+02   2.000000E+02   2.000000E+02   2.000000E+02   2.000000E+02   2.000000E+02   2.000000E+02   2.000000E+02   2.000000E+02   2.000000E+02   2.000000E+02   2.000000E+02   2.000000E+02   2.000000E+02   2.000000E+02   2.000000E+02   2.000000E+02   2.000000E+02   2.000000E+02   2.000000E+02
INTERNAL               1  (75E15.6) -1 #model_top                     
   5.370000E+02   5.370000E+02   5.430000E+02   5.560000E+02   5.740000E+02   5.340000E+02   5.200000E+02   5.210000E+02   5.410000E+02   5.780000E+02   5.700000E+02   5.520000E+02   5.710000E+02   6.060000E+02   6.350000E+02   6.720000E+02   7.440000E+02   8.140000E+02   8.880000E+02   9.030000E+02   9.530000E+02   9.700000E+02   1.005000E+03   1.047000E+03   1.067000E+03   1.067000E+03   1.077000E+03   1.142000E+03   1.163000E+03   1.218000E+03   1.244000E+03   1.197000E+03   1.214000E+03   1.236000E+03   1.284000E+03   1.262000E+03   1.174000E+03   1.101000E+03   1.237000E+03   1.353000E+03   1.453000E+03   1.537000E+03   1.459000E+03   1.449000E+03   1.534000E+03   1.540000E+03   1.636000E+03   1.659000E+03   1.455000E+03   1.257000E+03   1.201000E+03   1.173000E+03   1.195000E+03   1.293000E+03   1.442000E+03   1.605000E+03   1.679000E+03   1.567000E+03   1.465000E+03   1.357000E+03   1.282000E+03   1.244000E+03   1.212000E+03   1.166000E+03   1.113000E+03   1.073000E+03   1.037000E+03   1.037000E+03   9.860000E+02   1.005000E+03   9.180000E+02   9.180000E+02   9.060000E+02   8.590000E+02   8.490000E+02
   5.450000E+02   5.460000E+02   5.540000E+02   5.630000E+02   5.680000E+02   5.340000E+02   5.200000E+02   5.260000E+02   5.330000E+02   5.510000E+02   5.650000E+02   5.520000E+02   5.750000E+02   5.940000E+02   6.320000E+02   6.780000E+02   7.320000E+02   7.750000E+02   8.250000E+02   9.020000E+02   9.870000E+02   1.048000E+03   1.072000E+03   1.099000E+03   1.110000E+03   1.122000E+03   1.118000E+03   1.114000E+03   1.103000E+03   1.149000E+03   1.170000E+03   1.133000E+03   1.162000E+03   1.182000E+03   1.219000E+03   1.198000E+03   1.125000E+03   1.096000E+03   1.174000E+03   1.311000E+03   1.411000E+03   1.498000E+03   1.389000E+03   1.322000E+03   1.358000E+03   1.452000E+03   1.626000E+03   1.577000E+03   1.398000E+03   1.233000E+03   1.170000E+03   1.160000E+03   1.220000E+03   1.367000E+03   1.514000E+03   1.567000E+03   1.603000E+03   1.564000E+03   1.442000E+03   1.360000E+03   1.347000E+03   1.259000E+03   1.184000E+03   1.148000E+03   1.172000E+03   1.178000E+03   1.064000E+03   1.049000E+03   1.024000E+03   9.860000E+02   9.880000E+02   9.930000E+02   9.680000E+02   9.340000E+02   8.490000E+02
   5.460000E+02   5.470000E+02   5.580000E+02   5.640000E+02   5.560000E+02   5.310000E+02   5.300000E+02   5.310000E+02   5.400000E+02   5.360000E+02   5.590000E+02   5.770000E+02   5.620000E+02   5.710000E+02   6.000000E+02   6.390000E+02   6.970000E+02   7.410000E+02   8.030000E+02   8.970000E+02   9.880000E+02   1.088000E+03   1.120000E+03   1.157000E+03   1.169000E+03   1.148000E+03   1.118000E+03   1.053000E+03   1.023000E+03   1.078000E+03   1.073000E+03   1.073000E+03   1.108000E+03   1.172000E+03   1.150000E+03   1.095000E+03   1.056000E+03   1.038000E+03   1.145000E+03   1.257000E+03   1.383000E+03   1.455000E+03   1.354000E+03   1.270000E+03   1.283000E+03   1.412000E+03   1.659000E+03   1.572000E+03   1.308000E+03   1.201000E+03   1.143000E+03   1.169000E+03   1.252000E+03   1.342000E+03   1.379000E+03   1.470000E+03   1.541000E+03   1.563000E+03   1.488000E+03   1.378000E+03   1.330000E+03   1.304000E+03   1.238000E+03   1.258000E+03   1.239000E+03   1.153000E+03   1.180000E+03   1.097000E+03   1.075000E+03   1.061000E+03   1.037000E+03   1.057000E+03   1.023000E+03   9.530000E+02   9.310000E+02
   5.580000E+02   5.660000E+02   5.720000E+02   5.690000E+02   5.550000E+02   5.430000E+02   5.400000E+02   5.390000E+02   5.530000E+02   5.540000E+02   5.500000E+02   5.610000E+02   5.900000E+02   5.730000E+02   5.950000E+02   6.160000E+02   6.580000E+02   7.110000E+02   7.760000E+02   8.820000E+02   9.350000E+02   1.059000E+03   1.132000E+03   1.167000E+03   1.146000E+03   1.081000E+03   1.053000E+03   9.830000E+02   9.810000E+02   1.000000E+03   9.890000E+02   1.049000E+03   1.107000E+03   1.087000E+03   1.094000E+03   1.044000E+03   1.006000E+03   1.021000E+03   1.148000E+03   1.237000E+03   1.339000E+03   1.376000E+03   1.335000E+03   1.243000E+03   1.265000E+03   1.419000E+03   1.551000E+03   1.492000E+03   1.276000E+03   1.159000E+03   1.134000E+03   1.176000E+03   1.250000E+03   1.338000E+03   1.430000E+03   1.551000E+03   1.606000E+03   1.614000E+03   1.551000E+03   1.437000E+03   1.397000E+03   1.377000E+03   1.316000E+03   1.295000E+03   1.229000E+03   1.218000E+03   1.228000E+03   1.114000E+03   1.124000E+03   1.124000E+03   1.109000E+03   1.103000E+03   1.015000E+03   9.430000E+02   9.800000E+02
   5.670000E+02   5.760000E+02   5.810000E+02   5.850000E+02   5.860000E+02   5.580000E+02   5.520000E+02   5.510000E+02   5.450000E+02   5.500000E+02   5.610000E+02   5.660000E+02   5.770000E+02   5.940000E+02   5.890000E+02   6.130000E+02   6.410000E+02   6.840000E+02   7.380000E+02   8.170000E+02   9.250000E+02   1.031000E+03   1.089000E+03   1.075000E+03   1.096000E+03   1.016000E+03   1.012000E+03   9.710000E+02   9.180000E+02   9.330000E+02   9.610000E+02   1.025000E+03   1.042000E+03   1.014000E+03   1.023000E+03   1.002000E+03   9.560000E+02   1.060000E+03   1.137000E+03   1.207000E+03   1.283000E+03   1.327000E+03   1.299000E+03   1.232000E+03   1.290000E+03   1.389000E+03   1.485000E+03   1.369000E+03   1.215000E+03   1.133000E+03   1.128000E+03   1.203000E+03   1.308000E+03   1.429000E+03   1.547000E+03   1.628000E+03   1.625000E+03   1.611000E+03   1.613000E+03   1.522000E+03   1.475000E+03   1.431000E+03   1.403000E+03   1.278000E+03   1.303000E+03   1.285000E+03   1.187000E+03   1.159000E+03   1.212000E+03   1.212000E+03   1.215000E+03   1.107000E+03   9.990000E+02   9.730000E+02   1.032000E+03
   5.670000E+02   5.700000E+02   5.810000E+02   5.970000E+02   6.020000E+02   5.740000E+02   5.630000E+02   5.610000E+02   5.450000E+02   5.490000E+02   5.520000E+02   5.680000E+02   5.650000E+02   5.720000E+02   5.810000E+02   6.040000E+02   6.320000E+02   6.640000E+02   6.970000E+02   7.690000E+02   8.710000E+02   9.460000E+02   1.003000E+03   9.900000E+02   1.018000E+03   9.740000E+02   9.500000E+02   9.290000E+02   8.630000E+02   8.770000E+02   9.320000E+02   9.680000E+02   9.740000E+02   9.540000E+02   9.650000E+02   9.130000E+02   9.900000E+02   1.029000E+03   1.096000E+03   1.170000E+03   1.223000E+03   1.242000E+03   1.263000E+03   1.228000E+03   1.287000E+03   1.337000E+03   1.425000E+03   1.298000E+03   1.162000E+03   1.128000E+03   1.140000E+03   1.246000E+03   1.388000E+03   1.475000E+03   1.423000E+03   1.450000E+03   1.470000E+03   1.495000E+03   1.608000E+03   1.570000E+03   1.533000E+03   1.462000E+03   1.382000E+03   1.316000E+03   1.363000E+03   1.301000E+03   1.300000E+03   1.275000E+03   1.251000E+03   1.308000E+03   1.240000E+03   1.092000E+03   1.000000E+03   1.028000E+03   1.141000E+03
   5.850000E+02   5.770000E+02   5.700000E+02   5.860000E+02   5.940000E+02   5.880000E+02   5.870000E+02   5.700000E+02   5.580000E+02   5.490000E+02   5.520000E+02   5.550000E+02   5.620000E+02   5.610000E+02   5.650000E+02   5.820000E+02   6.130000E+02   6.320000E+02   6.760000E+02   7.120000E+02   7.740000E+02   8.660000E+02   8.970000E+02   8.780000E+02   9.110000E+02   9.320000E+02   8.680000E+02   8.700000E+02   7.950000E+02   8.610000E+02   8.980000E+02   9.170000E+02   9.030000E+02   9.070000E+02   8.740000E+02   8.900000E+02   9.540000E+02   1.008000E+03   1.060000E+03   1.137000E+03   1.168000E+03   1.202000E+03   1.213000E+03   1.202000E+03   1.241000E+03   1.276000E+03   1.300000E+03   1.209000E+03   1.133000E+03   1.129000E+03   1.184000E+03   1.304000E+03   1.442000E+03   1.368000E+03   1.354000E+03   1.395000E+03   1.448000E+03   1.546000E+03   1.625000E+03   1.648000E+03   1.606000E+03   1.548000E+03   1.470000E+03   1.422000E+03   1.410000E+03   1.428000E+03   1.460000E+03   1.465000E+03   1.411000E+03   1.412000E+03   1.319000E+03   1.191000E+03   1.044000E+03   1.104000E+03   1.231000E+03
   5.720000E+02   5.950000E+02   5.790000E+02   5.800000E+02   6.040000E+02   6.130000E+02   5.920000E+02   5.740000E+02   5.610000E+02   5.520000E+02   5.560000E+02   5.580000E+02   5.660000E+02   5.610000E+02   5.670000E+02   5.780000E+02   5.870000E+02   5.960000E+02   6.500000E+02   6.830000E+02   7.150000E+02   7.630000E+02   7.990000E+02   7.980000E+02   8.290000E+02   8.800000E+02   8.590000E+02   8.070000E+02   7.470000E+02   7.980000E+02   8.650000E+02   8.630000E+02   8.420000E+02   8.510000E+02   8.400000E+02   8.850000E+02   9.410000E+02   9.850000E+02   1.046000E+03   1.094000E+03   1.126000E+03   1.153000E+03   1.168000E+03   1.203000E+03   1.197000E+03   1.205000E+03   1.238000E+03   1.163000E+03   1.130000E+03   1.149000E+03   1.228000E+03   1.350000E+03   1.371000E+03   1.293000E+03   1.329000E+03   1.449000E+03   1.539000E+03   1.590000E+03   1.596000E+03   1.670000E+03   1.676000E+03   1.629000E+03   1.565000E+03   1.506000E+03   1.486000E+03   1.502000E+03   1.537000E+03   1.540000E+03   1.495000E+03   1.400000E+03   1.232000E+03   1.121000E+03   1.085000E+03   1.169000E+03   1.286000E+03
   5.720000E+02   5.810000E+02   5.880000E+02   5.890000E+02   5.860000E+02   6.110000E+02   6.100000E+02   5.810000E+02   5.550000E+02   5.280000E+02   5.340000E+02   5.410000E+02   5.470000E+02   5.540000E+02   5.610000E+02   5.610000E+02   5.710000E+02   5.820000E+02   6.160000E+02   6.470000E+02   6.520000E+02   7.050000E+02   7.270000E+02   7.330000E+02   7.960000E+02   8.460000E+02   8.700000E+02   8.030000E+02   7.230000E+02   7.530000E+02   8.430000E+02   7.970000E+02   7.880000E+02   8.130000E+02   8.510000E+02   8.940000E+02   9.310000E+02   9.620000E+02   9.990000E+02   1.050000E+03   1.080000E+03   1.103000E+03   1.110000E+03   1.145000E+03   1.144000E+03   1.164000E+03   1.194000E+03   1.132000E+03   1.128000E+03   1.178000E+03   1.236000E+03   1.309000E+03   1.288000E+03   1.291000E+03   1.358000E+03   1.426000E+03   1.469000E+03   1.476000E+03   1.477000E+03   1.647000E+03   1.665000E+03   1.705000E+03   1.641000E+03   1.575000E+03   1.561000E+03   1.580000E+03   1.623000E+03   1.619000E+03   1.549000E+03   1.415000E+03   1.274000E+03   1.233000E+03   1.154000E+03   1.237000E+03   1.280000E+03
   5.990000E+02   5.860000E+02   6.050000E+02   5.870000E+02   5.970000E+02   6.150000E+02   6.110000E+02   5.970000E+02   5.640000E+02   5.280000E+02   5.040000E+02   5.130000E+02   5.290000E+02   5.390000E+02   5.560000E+02   5.610000E+02   5.610000E+02   5.720000E+02   5.920000E+02   6.050000E+02   6.300000E+02   6.820000E+02   6.640000E+02   6.900000E+02   7.520000E+02   8.050000E+02   8.360000E+02   7.850000E+02   7.230000E+02   7.340000E+02   7.850000E+02   7.690000E+02   7.640000E+02   8.300000E+02   8.700000E+02   8.920000E+02   9.170000E+02   9.340000E+02   9.710000E+02   1.016000E+03   1.044000E+03   1.065000E+03   1.086000E+03   1.098000E+03   1.105000E+03   1.141000E+03   1.150000E+03   1.107000E+03   1.125000E+03   1.200000E+03   1.227000E+03   1.240000E+03   1.259000E+03   1.307000E+03   1.340000E+03   1.357000E+03   1.376000E+03   1.413000E+03   1.445000E+03   1.525000E+03   1.557000E+03   1.704000E+03   1.702000E+03   1.580000E+03   1.528000E+03   1.489000E+03   1.540000E+03   1.642000E+03   1.668000E+03   1.538000E+03   1.448000E+03   1.359000E+03   1.288000E+03   1.334000E+03   1.337000E+03
   5.920000E+02   5.920000E+02   5.980000E+02   6.090000E+02   6.100000E+02   6.180000E+02   6.050000E+02   5.930000E+02   5.680000E+02   5.290000E+02   5.010000E+02   5.090000E+02   5.280000E+02   5.220000E+02   5.340000E+02   5.510000E+02   5.600000E+02   5.620000E+02   5.770000E+02   5.880000E+02   6.060000E+02   6.420000E+02   6.150000E+02   6.590000E+02   7.140000E+02   7.370000E+02   7.740000E+02   7.540000E+02   7.140000E+02   7.050000E+02   7.480000E+02   7.250000E+02   7.430000E+02   7.890000E+02   8.380000E+02   8.800000E+02   8.930000E+02   9.040000E+02   9.460000E+02   9.780000E+02   1.000000E+03   1.017000E+03   1.058000E+03   1.055000E+03   1.064000E+03   1.096000E+03   1.079000E+03   1.109000E+03   1.158000E+03   1.185000E+03   1.225000E+03   1.261000E+03   1.307000E+03   1.356000E+03   1.395000E+03   1.425000E+03   1.440000E+03   1.481000E+03   1.519000E+03   1.568000E+03   1.605000E+03   1.730000E+03   1.668000E+03   1.538000E+03   1.437000E+03   1.394000E+03   1.443000E+03   1.538000E+03   1.705000E+03   1.682000E+03   1.561000E+03   1.451000E+03   1.432000E+03   1.442000E+03   1.438000E+03
   6.190000E+02   6.100000E+02   5.960000E+02   6.290000E+02   6.250000E+02   6.040000E+02   5.710000E+02   5.400000E+02   5.150000E+02   5.100000E+02   4.970000E+02   5.080000E+02   5.140000E+02   5.130000E+02   5.120000E+02   5.360000E+02   5.400000E+02   5.570000E+02   5.580000E+02   5.730000E+02   5.830000E+02   5.800000E+02   5.650000E+02   5.990000E+02   6.020000E+02   6.160000E+02   7.090000E+02   6.880000E+02   6.560000E+02   6.810000E+02   6.760000E+02   7.120000E+02   7.230000E+02   7.640000E+02   8.180000E+02   8.620000E+02   8.620000E+02   8.890000E+02   9.230000E+02   9.300000E+02   9.620000E+02   9.770000E+02   1.006000E+03   1.001000E+03   1.016000E+03   1.049000E+03   1.093000E+03   1.124000E+03   1.171000E+03   1.207000E+03   1.240000E+03   1.329000E+03   1.375000E+03   1.443000E+03   1.490000E+03   1.565000E+03   1.569000E+03   1.566000E+03   1.600000E+03   1.634000E+03   1.698000E+03   1.802000E+03   1.686000E+03   1.546000E+03   1.428000E+03   1.354000E+03   1.367000E+03   1.466000E+03   1.609000E+03   1.677000E+03   1.704000E+03   1.610000E+03   1.586000E+03   1.572000E+03   1.508000E+03
   6.260000E+02   6.190000E+02   5.980000E+02   6.250000E+02   6.210000E+02   5.830000E+02   5.460000E+02   5.110000E+02   5.040000E+02   4.980000E+02   4.910000E+02   4.920000E+02   4.930000E+02   5.040000E+02   4.990000E+02   5.050000E+02   5.240000E+02   5.390000E+02   5.430000E+02   5.620000E+02   5.550000E+02   5.200000E+02   5.340000E+02   5.300000E+02   5.430000E+02   5.550000E+02   5.660000E+02   6.260000E+02   6.100000E+02   6.370000E+02   6.900000E+02   7.110000E+02   7.020000E+02   7.360000E+02   7.830000E+02   8.170000E+02   8.300000E+02   8.680000E+02   8.930000E+02   9.070000E+02   9.200000E+02   9.370000E+02   9.420000E+02   9.970000E+02   1.027000E+03   1.066000E+03   1.118000E+03   1.149000E+03   1.200000E+03   1.262000E+03   1.293000E+03   1.326000E+03   1.391000E+03   1.462000E+03   1.535000E+03   1.666000E+03   1.676000E+03   1.654000E+03   1.691000E+03   1.748000E+03   1.799000E+03   1.772000E+03   1.680000E+03   1.562000E+03   1.454000E+03   1.359000E+03   1.335000E+03   1.385000E+03   1.467000E+03   1.516000E+03   1.641000E+03   1.708000E+03   1.684000E+03   1.532000E+03   1.415000E+03
   6.420000E+02   6.290000E+02   6.280000E+02   6.300000E+02   6.230000E+02   5.700000E+02   5.150000E+02   4.990000E+02   5.030000E+02   4.920000E+02   4.860000E+02   4.880000E+02   4.790000E+02   4.960000E+02   4.840000E+02   5.010000E+02   5.100000E+02   5.060000E+02   5.260000E+02   4.880000E+02   4.770000E+02   4.830000E+02   4.900000E+02   5.150000E+02   5.780000E+02   6.400000E+02   5.890000E+02   5.860000E+02   6.070000E+02   6.380000E+02   6.370000E+02   6.810000E+02   6.810000E+02   7.230000E+02   7.310000E+02   7.440000E+02   7.840000E+02   8.250000E+02   8.500000E+02   8.530000E+02   8.740000E+02   9.030000E+02   9.600000E+02   1.016000E+03   1.049000E+03   1.076000E+03   1.127000E+03   1.173000E+03   1.213000E+03   1.282000E+03   1.336000E+03   1.389000E+03   1.405000E+03   1.514000E+03   1.631000E+03   1.705000E+03   1.753000E+03   1.722000E+03   1.704000E+03   1.727000E+03   1.732000E+03   1.745000E+03   1.682000E+03   1.551000E+03   1.488000E+03   1.381000E+03   1.324000E+03   1.321000E+03   1.356000E+03   1.354000E+03   1.423000E+03   1.554000E+03   1.686000E+03   1.553000E+03   1.412000E+03
   6.420000E+02   6.410000E+02   6.400000E+02   6.330000E+02   5.960000E+02   5.530000E+02   4.950000E+02   4.800000E+02   4.890000E+02   4.850000E+02   4.600000E+02   4.670000E+02   4.750000E+02   4.840000E+02   4.790000E+02   4.910000E+02   4.960000E+02   5.020000E+02   4.780000E+02   4.650000E+02   4.680000E+02   4.720000E+02   5.010000E+02   5.560000E+02   6.160000E+02   6.420000E+02   6.360000E+02   6.380000E+02   6.630000E+02   7.060000E+02   7.190000E+02   7.230000E+02   7.010000E+02   7.230000E+02   7.340000E+02   7.830000E+02   7.870000E+02   7.890000E+02   8.170000E+02   8.510000E+02   9.020000E+02   9.260000E+02   9.800000E+02   1.017000E+03   1.066000E+03   1.110000E+03   1.140000E+03   1.190000E+03   1.230000E+03   1.293000E+03   1.368000E+03   1.445000E+03   1.482000E+03   1.547000E+03   1.659000E+03   1.748000E+03   1.788000E+03   1.689000E+03   1.505000E+03   1.466000E+03   1.563000E+03   1.677000E+03   1.699000E+03   1.611000E+03   1.558000E+03   1.446000E+03   1.324000E+03   1.292000E+03   1.301000E+03   1.336000E+03   1.398000E+03   1.513000E+03   1.671000E+03   1.597000E+03   1.412000E+03
   6.390000E+02   6.180000E+02   5.970000E+02   5.680000E+02   5.450000E+02   5.030000E+02   4.770000E+02   4.610000E+02   4.720000E+02   4.750000E+02   4.520000E+02   4.560000E+02   4.550000E+02   4.640000E+02   4.730000E+02   4.790000E+02   4.760000E+02   4.660000E+02   4.520000E+02   4.550000E+02   4.590000E+02   4.960000E+02   5.310000E+02   5.860000E+02   6.020000E+02   6.340000E+02   6.820000E+02   7.100000E+02   7.260000E+02   7.540000E+02   7.760000E+02   7.750000E+02   7.690000E+02   7.860000E+02   7.910000E+02   8.200000E+02   8.440000E+02   8.240000E+02   8.390000E+02   8.870000E+02   9.400000E+02   9.750000E+02   9.860000E+02   1.047000E+03   1.080000E+03   1.112000E+03   1.172000E+03   1.232000E+03   1.281000E+03   1.340000E+03   1.422000E+03   1.537000E+03   1.611000E+03   1.663000E+03   1.691000E+03   1.820000E+03   1.787000E+03   1.480000E+03   1.418000E+03   1.381000E+03   1.465000E+03   1.597000E+03   1.753000E+03   1.706000E+03   1.628000E+03   1.556000E+03   1.391000E+03   1.294000E+03   1.279000E+03   1.312000E+03   1.407000E+03   1.453000E+03   1.597000E+03   1.571000E+03   1.539000E+03
   5.950000E+02   5.740000E+02   5.460000E+02   5.140000E+02   5.070000E+02   4.760000E+02   4.530000E+02   4.450000E+02   4.490000E+02   4.500000E+02   4.360000E+02   4.530000E+02   4.680000E+02   4.710000E+02   4.700000E+02   4.460000E+02   4.420000E+02   4.450000E+02   4.450000E+02   4.570000E+02   4.850000E+02   5.120000E+02   5.090000E+02   5.630000E+02   6.000000E+02   6.340000E+02   6.810000E+02   7.000000E+02   7.250000E+02   7.330000E+02   7.770000E+02   8.050000E+02   8.180000E+02   8.210000E+02   8.300000E+02   8.570000E+02   8.700000E+02   8.640000E+02   8.840000E+02   9.000000E+02   9.420000E+02   9.860000E+02   1.031000E+03   1.039000E+03   1.104000E+03   1.141000E+03   1.201000E+03   1.245000E+03   1.297000E+03   1.358000E+03   1.477000E+03   1.570000E+03   1.592000E+03   1.641000E+03   1.701000E+03   1.844000E+03   1.740000E+03   1.479000E+03   1.398000E+03   1.353000E+03   1.409000E+03   1.520000E+03   1.689000E+03   1.716000E+03   1.650000E+03   1.594000E+03   1.456000E+03   1.341000E+03   1.285000E+03   1.258000E+03   1.395000E+03   1.437000E+03   1.568000E+03   1.476000E+03   1.362000E+03
   5.380000E+02   5.070000E+02   4.720000E+02   4.620000E+02   4.490000E+02   4.370000E+02   4.410000E+02   4.360000E+02   4.390000E+02   4.370000E+02   4.310000E+02   4.510000E+02   4.600000E+02   4.630000E+02   4.410000E+02   4.320000E+02   4.330000E+02   4.420000E+02   4.360000E+02   4.570000E+02   4.630000E+02   4.920000E+02   5.150000E+02   5.540000E+02   5.810000E+02   6.350000E+02   6.620000E+02   7.010000E+02   7.160000E+02   7.410000E+02   7.650000E+02   7.870000E+02   8.150000E+02   8.250000E+02   8.480000E+02   8.830000E+02   9.110000E+02   8.960000E+02   9.000000E+02   9.070000E+02   9.400000E+02   9.840000E+02   1.041000E+03   1.077000E+03   1.089000E+03   1.120000E+03   1.199000E+03   1.244000E+03   1.305000E+03   1.373000E+03   1.427000E+03   1.517000E+03   1.580000E+03   1.622000E+03   1.688000E+03   1.803000E+03   1.742000E+03   1.475000E+03   1.403000E+03   1.350000E+03   1.376000E+03   1.445000E+03   1.569000E+03   1.626000E+03   1.577000E+03   1.561000E+03   1.547000E+03   1.442000E+03   1.313000E+03   1.248000E+03   1.263000E+03   1.350000E+03   1.505000E+03   1.481000E+03   1.362000E+03
   4.880000E+02   4.720000E+02   4.340000E+02   4.370000E+02   4.320000E+02   4.380000E+02   4.390000E+02   4.300000E+02   4.360000E+02   4.380000E+02   4.340000E+02   4.290000E+02   4.330000E+02   4.280000E+02   4.290000E+02   4.380000E+02   4.440000E+02   4.440000E+02   4.360000E+02   4.550000E+02   4.620000E+02   4.800000E+02   5.080000E+02   5.290000E+02   5.560000E+02   6.070000E+02   6.480000E+02   6.830000E+02   7.080000E+02   7.400000E+02   7.610000E+02   7.980000E+02   8.100000E+02   8.220000E+02   8.550000E+02   8.700000E+02   9.010000E+02   9.190000E+02   9.040000E+02   9.020000E+02   9.480000E+02   9.900000E+02   1.035000E+03   1.085000E+03   1.111000E+03   1.153000E+03   1.169000E+03   1.224000E+03   1.272000E+03   1.314000E+03   1.393000E+03   1.468000E+03   1.552000E+03   1.647000E+03   1.761000E+03   1.853000E+03   1.742000E+03   1.501000E+03   1.409000E+03   1.347000E+03   1.361000E+03   1.417000E+03   1.511000E+03   1.609000E+03   1.542000E+03   1.515000E+03   1.500000E+03   1.482000E+03   1.338000E+03   1.256000E+03   1.248000E+03   1.359000E+03   1.469000E+03   1.500000E+03   1.403000E+03
   4.540000E+02   4.040000E+02   3.940000E+02   3.930000E+02   4.140000E+02   4.360000E+02   4.350000E+02   4.270000E+02   4.380000E+02   4.420000E+02   4.370000E+02   4.330000E+02   4.190000E+02   4.190000E+02   4.300000E+02   4.400000E+02   4.420000E+02   4.410000E+02   4.360000E+02   4.490000E+02   4.530000E+02   4.700000E+02   4.880000E+02   5.090000E+02   5.400000E+02   5.930000E+02   6.310000E+02   6.660000E+02   6.940000E+02   7.490000E+02   7.520000E+02   7.910000E+02   8.190000E+02   8.280000E+02   8.370000E+02   8.670000E+02   8.960000E+02   9.170000E+02   9.230000E+02   9.250000E+02   9.600000E+02   9.960000E+02   1.050000E+03   1.085000E+03   1.124000E+03   1.164000E+03   1.215000E+03   1.262000E+03   1.299000E+03   1.386000E+03   1.447000E+03   1.497000E+03   1.569000E+03   1.659000E+03   1.759000E+03   1.861000E+03   1.692000E+03   1.605000E+03   1.458000E+03   1.363000E+03   1.334000E+03   1.352000E+03   1.444000E+03   1.584000E+03   1.627000E+03   1.581000E+03   1.532000E+03   1.451000E+03   1.355000E+03   1.254000E+03   1.190000E+03   1.288000E+03   1.364000E+03   1.392000E+03   1.426000E+03
   3.880000E+02   3.840000E+02   3.850000E+02   3.890000E+02   3.910000E+02   4.020000E+02   4.140000E+02   4.380000E+02   4.430000E+02   4.400000E+02   4.330000E+02   4.290000E+02   4.130000E+02   4.190000E+02   4.320000E+02   4.370000E+02   4.310000E+02   4.310000E+02   4.390000E+02   4.390000E+02   4.560000E+02   4.660000E+02   4.700000E+02   5.030000E+02   5.260000E+02   5.790000E+02   6.160000E+02   6.500000E+02   6.800000E+02   7.330000E+02   7.630000E+02   7.620000E+02   7.970000E+02   8.210000E+02   8.440000E+02   8.770000E+02   9.010000E+02   9.260000E+02   9.450000E+02   9.500000E+02   9.710000E+02   1.003000E+03   1.062000E+03   1.103000E+03   1.152000E+03   1.192000E+03   1.222000E+03   1.303000E+03   1.379000E+03   1.436000E+03   1.503000E+03   1.596000E+03   1.658000E+03   1.741000E+03   1.827000E+03   1.935000E+03   1.847000E+03   1.682000E+03   1.500000E+03   1.394000E+03   1.335000E+03   1.325000E+03   1.399000E+03   1.538000E+03   1.640000E+03   1.630000E+03   1.497000E+03   1.399000E+03   1.327000E+03   1.267000E+03   1.205000E+03   1.165000E+03   1.236000E+03   1.356000E+03   1.419000E+03
   3.810000E+02   3.810000E+02   3.850000E+02   3.840000E+02   3.880000E+02   3.870000E+02   3.920000E+02   4.040000E+02   4.370000E+02   4.340000E+02   4.380000E+02   4.110000E+02   4.130000E+02   4.200000E+02   4.140000E+02   4.230000E+02   4.340000E+02   4.410000E+02   4.340000E+02   4.320000E+02   4.400000E+02   4.490000E+02   4.630000E+02   4.890000E+02   5.210000E+02   5.570000E+02   5.940000E+02   6.350000E+02   6.580000E+02   6.970000E+02   7.380000E+02   7.680000E+02   7.860000E+02   8.070000E+02   8.360000E+02   8.480000E+02   8.770000E+02   9.070000E+02   8.990000E+02   9.300000E+02   9.710000E+02   1.017000E+03   1.053000E+03   1.107000E+03   1.159000E+03   1.212000E+03   1.274000E+03   1.335000E+03   1.401000E+03   1.490000E+03   1.585000E+03   1.670000E+03   1.757000E+03   1.833000E+03   1.922000E+03   2.011000E+03   1.870000E+03   1.782000E+03   1.682000E+03   1.470000E+03   1.326000E+03   1.307000E+03   1.376000E+03   1.544000E+03   1.620000E+03   1.657000E+03   1.504000E+03   1.421000E+03   1.384000E+03   1.325000E+03   1.239000E+03   1.163000E+03   1.175000E+03   1.288000E+03   1.401000E+03
   3.830000E+02   3.810000E+02   3.840000E+02   3.840000E+02   3.860000E+02   3.850000E+02   3.950000E+02   3.950000E+02   3.990000E+02   4.000000E+02   4.320000E+02   4.100000E+02   4.100000E+02   4.140000E+02   4.330000E+02   4.350000E+02   4.400000E+02   4.430000E+02   4.410000E+02   4.320000E+02   4.370000E+02   4.490000E+02   4.700000E+02   5.020000E+02   5.230000E+02   5.300000E+02   5.680000E+02   6.120000E+02   6.470000E+02   6.870000E+02   7.110000E+02   7.490000E+02   7.630000E+02   7.940000E+02   7.920000E+02   8.020000E+02   8.450000E+02   8.580000E+02   8.870000E+02   9.290000E+02   9.690000E+02   1.001000E+03   1.046000E+03   1.093000E+03   1.154000E+03   1.216000E+03   1.290000E+03   1.363000E+03   1.449000E+03   1.516000E+03   1.627000E+03   1.736000E+03   1.815000E+03   1.885000E+03   1.937000E+03   2.013000E+03   1.967000E+03   1.794000E+03   1.657000E+03   1.435000E+03   1.324000E+03   1.304000E+03   1.387000E+03   1.526000E+03   1.658000E+03   1.700000E+03   1.617000E+03   1.539000E+03   1.481000E+03   1.391000E+03   1.257000E+03   1.176000E+03   1.111000E+03   1.169000E+03   1.311000E+03
   3.750000E+02   3.820000E+02   3.790000E+02   3.830000E+02   3.830000E+02   3.900000E+02   3.910000E+02   3.940000E+02   3.970000E+02   3.960000E+02   4.090000E+02   4.140000E+02   4.100000E+02   4.120000E+02   4.100000E+02   4.440000E+02   4.460000E+02   4.490000E+02   4.440000E+02   4.400000E+02   4.350000E+02   4.430000E+02   4.580000E+02   5.040000E+02   4.990000E+02   5.250000E+02   5.540000E+02   5.940000E+02   6.270000E+02   6.630000E+02   6.880000E+02   6.950000E+02   6.970000E+02   7.330000E+02   7.450000E+02   7.540000E+02   7.920000E+02   8.330000E+02   8.910000E+02   9.370000E+02   9.690000E+02   1.011000E+03   1.068000E+03   1.116000E+03   1.161000E+03   1.209000E+03   1.270000E+03   1.367000E+03   1.484000E+03   1.600000E+03   1.672000E+03   1.777000E+03   1.767000E+03   1.819000E+03   1.879000E+03   1.970000E+03   1.964000E+03   1.753000E+03   1.641000E+03   1.371000E+03   1.304000E+03   1.305000E+03   1.398000E+03   1.561000E+03   1.710000E+03   1.737000E+03   1.646000E+03   1.612000E+03   1.470000E+03   1.373000E+03   1.249000E+03   1.158000E+03   1.100000E+03   1.102000E+03   1.187000E+03