# SFR package for MODFLOW-NWT generated by Flopy 3.3.6
OPTIONS
REACHINPUT
END
41 1 0 0 86400.00000000 0.00010000 0 0 1 
1 24 61 1 1 107.07107 1304.0 0.0093395915 1.0 0.1
1 25 61 1 2 200.0 1303.0 0.105 1.0 0.1
1 26 61 1 3 241.42136 1282.0 0.07870058 1.0 0.1
1 27 60 1 4 241.42136 1263.0 0.08698485 1.0 0.1
1 28 60 1 5 200.0 1242.0 0.03 1.0 0.1
1 29 60 1 6 241.42136 1236.0 1e-04 1.0 0.1
1 30 59 1 7 241.42136 1236.0 0.082842715 1.0 0.1
1 31 59 1 8 200.0 1216.0 0.025 1.0 0.1
1 32 59 1 9 200.0 1211.0 0.035 1.0 0.1
1 33 59 1 10 200.0 1204.0 0.105 1.0 0.1
1 34 59 1 11 200.0 1183.0 0.01 1.0 0.1
1 35 59 1 12 241.42136 1181.0 0.091126986 1.0 0.1
1 36 58 1 13 241.42136 1159.0 0.12840621 1.0 0.1
1 37 58 1 14 200.0 1128.0 0.1 1.0 0.1
1 38 58 1 15 200.0 1108.0 0.205 1.0 0.1
1 39 58 1 16 241.42136 1067.0 0.062132034 1.0 0.1
1 40 57 1 17 241.42136 1052.0 0.19882251 1.0 0.1
1 41 57 1 18 241.42136 1004.0 0.19053824 1.0 0.1
1 42 56 1 19 241.42136 958.0 0.12426407 1.0 0.1
1 42 55 1 20 241.42136 928.0 0.08284271 1.0 0.1
1 43 54 1 21 282.8427 908.0 1e-04 1.0 0.1
1 44 53 1 22 282.8427 908.0 0.14495689 1.0 0.1
1 45 52 1 23 241.42136 867.0 1e-04 1.0 0.1
1 45 51 1 24 241.42136 867.0 0.024852814 1.0 0.1
1 46 50 1 25 241.42136 861.0 0.1863961 1.0 0.1
1 46 49 1 26 200.0 816.0 0.004999995 1.0 0.1
1 46 48 1 27 200.0 815.0 1e-04 1.0 0.1
1 46 47 1 28 241.42136 815.0 0.32722872 1.0 0.1
1 45 46 1 29 241.42136 736.0 0.11183766 1.0 0.1
1 45 45 1 30 200.0 709.0 0.165 1.0 0.1
1 45 44 1 31 200.0 676.0 0.175 1.0 0.1
1 45 43 1 32 200.0 641.0 0.07 1.0 0.1
1 45 42 1 33 241.42136 627.0 0.074558444 1.0 0.1
1 44 41 1 34 241.42136 609.0 0.04970563 1.0 0.1
1 44 40 1 35 200.0 597.0 0.029999996 1.0 0.1
1 44 39 1 36 241.42136 591.0 1e-04 1.0 0.1
1 43 38 1 37 241.42136 591.0 0.053847764 1.0 0.1
1 43 37 1 38 200.0 578.0 0.18 1.0 0.1
1 43 36 1 39 200.0 542.0 0.095 1.0 0.1
1 43 35 1 40 241.42136 523.0 0.04970563 1.0 0.1
1 44 34 1 41 141.42136 511.0 0.001 1.0 0.1
1 0 0
1 1 0 0 0 0 0 0 0.04 
10.0 
10.0 
-1 0 0
